Version 4
SHEET 1 880 744
WIRE 64 -16 48 -16
WIRE 144 -16 128 -16
WIRE 336 32 288 32
WIRE 448 32 416 32
WIRE 208 80 208 32
WIRE 720 80 352 80
WIRE -304 112 -336 112
WIRE -192 112 -224 112
WIRE -64 112 -112 112
WIRE 48 112 48 -16
WIRE 48 112 16 112
WIRE 64 112 48 112
WIRE 144 112 144 -16
WIRE 352 112 352 80
WIRE 288 128 288 32
WIRE 336 128 288 128
WIRE 448 144 448 32
WIRE 448 144 400 144
WIRE 144 160 144 112
WIRE 336 160 144 160
WIRE 144 192 144 160
WIRE 352 224 352 176
WIRE 672 224 352 224
WIRE -336 304 -336 112
WIRE 144 304 144 272
WIRE 144 304 96 304
WIRE 336 304 288 304
WIRE 448 304 448 144
WIRE 448 304 416 304
WIRE 96 336 96 304
WIRE 144 400 144 304
WIRE 288 416 288 304
WIRE 336 416 288 416
WIRE 432 416 416 416
WIRE 496 416 432 416
WIRE 720 480 720 80
WIRE 720 480 352 480
WIRE -336 512 -336 384
WIRE -288 512 -336 512
WIRE -176 512 -208 512
WIRE -48 512 -96 512
WIRE 48 512 32 512
WIRE 64 512 48 512
WIRE 144 512 144 480
WIRE 352 512 352 480
WIRE 720 512 720 480
WIRE 288 528 288 416
WIRE 336 528 288 528
WIRE 432 544 432 416
WIRE 432 544 400 544
WIRE 144 560 144 512
WIRE 336 560 144 560
WIRE -336 576 -336 512
WIRE 48 608 48 512
WIRE 64 608 48 608
WIRE 144 608 144 560
WIRE 144 608 128 608
WIRE 720 608 720 592
WIRE 800 608 720 608
WIRE 720 624 720 608
WIRE 352 704 352 576
WIRE 672 704 672 224
WIRE 672 704 352 704
WIRE 720 704 672 704
FLAG 96 336 0
FLAG 208 80 0
FLAG -336 656 0
FLAG 800 608 0
FLAG 384 176 0
FLAG 384 576 0
SYMBOL OpAmps\\ADA4860 368 144 R0
SYMATTR InstName U1
SYMBOL res 432 16 R90
WINDOW 0 0 56 VBottom 2
WINDOW 3 32 56 VTop 2
SYMATTR InstName R1
SYMATTR Value 10k
SYMBOL res 160 96 R90
WINDOW 0 0 56 VBottom 2
WINDOW 3 32 56 VTop 2
SYMATTR InstName R2
SYMATTR Value 270k
SYMBOL res 432 288 R90
WINDOW 0 0 56 VBottom 2
WINDOW 3 32 56 VTop 2
SYMATTR InstName R3
SYMATTR Value 10k
SYMBOL res 432 400 R90
WINDOW 0 0 56 VBottom 2
WINDOW 3 32 56 VTop 2
SYMATTR InstName R4
SYMATTR Value 10k
SYMBOL res 592 400 R90
WINDOW 0 0 56 VBottom 2
WINDOW 3 32 56 VTop 2
SYMATTR InstName R5
SYMATTR Value 50
SYMBOL OpAmps\\ADA4860 368 544 R0
SYMATTR InstName U2
SYMBOL res 32 96 R90
WINDOW 0 0 56 VBottom 2
WINDOW 3 32 56 VTop 2
SYMATTR InstName R6
SYMATTR Value 270k
SYMBOL res -96 96 R90
WINDOW 0 0 56 VBottom 2
WINDOW 3 32 56 VTop 2
SYMATTR InstName R7
SYMATTR Value 270k
SYMBOL res -208 96 R90
WINDOW 0 0 56 VBottom 2
WINDOW 3 32 56 VTop 2
SYMATTR InstName R8
SYMATTR Value 270k
SYMBOL res 160 496 R90
WINDOW 0 0 56 VBottom 2
WINDOW 3 32 56 VTop 2
SYMATTR InstName R9
SYMATTR Value 270k
SYMBOL res 48 496 R90
WINDOW 0 0 56 VBottom 2
WINDOW 3 32 56 VTop 2
SYMATTR InstName R10
SYMATTR Value 270k
SYMBOL res -80 496 R90
WINDOW 0 0 56 VBottom 2
WINDOW 3 32 56 VTop 2
SYMATTR InstName R11
SYMATTR Value 270k
SYMBOL res -192 496 R90
WINDOW 0 0 56 VBottom 2
WINDOW 3 32 56 VTop 2
SYMATTR InstName R12
SYMATTR Value 270k
SYMBOL res 128 176 R0
SYMATTR InstName R13
SYMATTR Value 5.5k
SYMBOL res 128 384 R0
SYMATTR InstName R14
SYMATTR Value 5.5k
SYMBOL cap 128 -32 R90
WINDOW 0 0 32 VBottom 2
WINDOW 3 32 32 VTop 2
SYMATTR InstName C1
SYMATTR Value 10p
SYMBOL cap 128 592 R90
WINDOW 0 0 32 VBottom 2
WINDOW 3 32 32 VTop 2
SYMATTR InstName C2
SYMATTR Value 10p
SYMBOL res 304 16 R90
WINDOW 0 0 56 VBottom 2
WINDOW 3 32 56 VTop 2
SYMATTR InstName R15
SYMATTR Value 10k
SYMBOL voltage -336 288 R0
WINDOW 123 24 124 Left 2
WINDOW 39 0 0 Left 0
SYMATTR Value2 AC 1
SYMATTR InstName V1
SYMATTR Value SINE()
SYMBOL voltage -336 560 R0
WINDOW 123 24 124 Left 2
WINDOW 39 0 0 Left 0
SYMATTR Value2 AC 0
SYMATTR InstName V2
SYMATTR Value ""
SYMBOL voltage 720 608 R0
WINDOW 123 0 0 Left 0
WINDOW 39 0 0 Left 0
SYMATTR InstName V3
SYMATTR Value 12
SYMBOL voltage 720 496 R0
WINDOW 123 0 0 Left 0
WINDOW 39 0 0 Left 0
SYMATTR InstName V4
SYMATTR Value 12
TEXT -368 728 Left 2 !.ac oct 10 1000 100E6
